Version 4
SHEET 1 880 680
WIRE -48 112 -304 112
WIRE -304 144 -304 112
WIRE -48 144 -48 112
WIRE 80 144 -48 144
WIRE -496 176 -496 144
WIRE -400 176 -400 144
WIRE 320 176 224 176
WIRE 336 176 320 176
WIRE 80 208 64 208
WIRE 64 224 64 208
WIRE 64 224 -48 224
WIRE -304 256 -304 224
WIRE -48 256 -48 224
WIRE -48 256 -304 256
WIRE -48 288 -48 256
FLAG 112 256 0
FLAG -400 256 0
FLAG -400 144 3V3
FLAG 112 96 3V3
FLAG 144 256 0
FLAG 320 176 out
FLAG -48 288 0
FLAG -496 256 0
FLAG -496 144 ref
FLAG 144 96 ref
SYMBOL Opamps\\AD8418A 112 176 R0
SYMATTR InstName U1
SYMBOL voltage -400 160 R0
WINDOW 123 0 0 Left 0
WINDOW 39 0 0 Left 0
SYMATTR InstName V1
SYMATTR Value 3.3
SYMBOL res -64 128 R0
SYMATTR InstName R1
SYMATTR Value {Rsense}
SYMBOL current -304 224 R180
WINDOW 3 -202 79 Left 2
WINDOW 123 0 0 Left 0
WINDOW 39 0 0 Left 0
SYMATTR InstName I1
SYMATTR Value SINE(0.5 0.2 10k)
SYMBOL voltage -496 160 R0
WINDOW 123 0 0 Left 0
WINDOW 39 0 0 Left 0
SYMATTR InstName V2
SYMATTR Value 3
TEXT -434 312 Left 2 !.tran 1m
TEXT -192 48 Left 2 !.param Rsense = 100m
