Version 4
SHEET 1 880 680
WIRE -48 112 -304 112
WIRE -304 144 -304 112
WIRE -48 144 -48 112
WIRE 80 144 -48 144
WIRE -496 176 -496 144
WIRE -400 176 -400 144
WIRE 320 176 224 176
WIRE 336 176 320 176
WIRE 80 208 64 208
WIRE 64 224 64 208
WIRE 64 224 -48 224
WIRE 112 288 112 256
WIRE -304 304 -304 224
WIRE -48 304 -304 304
WIRE -48 336 -48 304
FLAG -400 256 0
FLAG -400 144 3V3
FLAG 112 96 3V3
FLAG 144 256 0
FLAG 320 176 out
FLAG -48 336 0
FLAG -496 256 0
FLAG -496 144 ref
FLAG 144 96 ref
FLAG 112 368 0
SYMBOL Opamps\\AD8418A 112 176 R0
SYMATTR InstName U1
SYMBOL voltage -400 160 R0
WINDOW 123 0 0 Left 0
WINDOW 39 0 0 Left 0
SYMATTR InstName V1
SYMATTR Value 3.3
SYMBOL res -64 128 R0
SYMATTR InstName R1
SYMATTR Value {Rsense}
SYMBOL current -304 224 R180
WINDOW 3 -381 -154 Left 2
WINDOW 123 0 0 Left 0
WINDOW 39 0 0 Left 0
SYMATTR Value PULSE(-0 1 0 1m 1m 1m 2m)
SYMATTR InstName I1
SYMBOL voltage -496 160 R0
WINDOW 123 0 0 Left 0
WINDOW 39 0 0 Left 0
SYMATTR InstName V2
SYMATTR Value 0
SYMBOL voltage -48 208 R0
WINDOW 123 0 0 Left 0
WINDOW 39 0 0 Left 0
SYMATTR InstName V3
SYMATTR Value 1
SYMBOL voltage 112 272 R0
WINDOW 123 0 0 Left 0
WINDOW 39 0 0 Left 0
SYMATTR InstName V4
SYMATTR Value -0.5
TEXT -432 312 Left 2 !.tran 10m
TEXT -192 48 Left 2 !.param Rsense=150m
