Version 4
SHEET 1 880 680
WIRE -128 -80 -176 -80
WIRE -32 -80 -128 -80
WIRE 16 -80 -32 -80
WIRE 400 -80 96 -80
WIRE 96 48 96 -80
WIRE -32 80 -32 -80
WIRE -176 96 -176 -80
WIRE 400 112 400 -80
WIRE 96 128 96 48
WIRE 176 128 96 128
WIRE 336 160 320 160
WIRE -32 192 -32 160
WIRE 80 192 -32 192
WIRE 176 192 80 192
WIRE 400 224 400 208
WIRE 480 224 400 224
WIRE 400 240 400 224
WIRE -32 256 -32 192
WIRE 208 256 208 240
WIRE 400 336 400 320
WIRE -176 352 -176 176
WIRE -32 352 -32 336
FLAG 208 336 0
FLAG 400 336 0
FLAG 480 224 out
FLAG -32 352 0
FLAG -176 352 0
FLAG -128 -80 in
FLAG 96 48 sense+
FLAG 208 80 0
FLAG 80 192 sense-
SYMBOL Opamps\\LT1637 208 160 M180
SYMATTR InstName U1
SYMBOL voltage 208 240 R0
WINDOW 123 0 0 Left 0
WINDOW 39 0 0 Left 0
SYMATTR InstName V1
SYMATTR Value 3
SYMBOL res 112 -96 R90
WINDOW 0 0 56 VBottom 2
WINDOW 3 32 56 VTop 2
SYMATTR InstName R1
SYMATTR Value 200
SYMBOL npn 336 112 R0
SYMATTR InstName Q1
SYMATTR Value 2N3904
SYMBOL res 384 224 R0
SYMATTR InstName R2
SYMATTR Value 2k
SYMBOL res -48 64 R0
SYMATTR InstName R3
SYMATTR Value 0.2
SYMBOL voltage -32 240 R0
WINDOW 123 0 0 Left 0
WINDOW 39 0 0 Left 0
SYMATTR InstName V2
SYMATTR Value 3
SYMBOL current -176 176 R180
WINDOW 0 24 80 Left 2
WINDOW 3 24 0 Left 2
WINDOW 123 0 0 Left 0
WINDOW 39 0 0 Left 0
SYMATTR InstName I1
SYMATTR Value PULSE(0 1 0 0.1m 0.1m 0.2m 0.4m)
TEXT -220 376 Left 2 !.tran 0.8m
