Version 4
SHEET 1 880 680
WIRE -48 96 -64 96
WIRE 64 96 32 96
WIRE 208 96 64 96
WIRE 416 96 304 96
WIRE 448 96 416 96
WIRE 448 144 448 96
WIRE -64 160 -64 96
WIRE 64 160 64 96
WIRE 64 240 64 224
WIRE 448 240 448 208
FLAG -64 240 0
FLAG 64 240 0
FLAG 448 240 0
FLAG 416 96 out
SYMBOL voltage -64 144 R0
WINDOW 123 24 44 Left 2
WINDOW 39 0 0 Left 0
SYMATTR InstName V1
SYMATTR Value ""
SYMATTR Value2 AC 1
SYMBOL EMC-Components\\Ferrites\\WE-CBF 256 96 R0
SYMATTR SpiceModel 0603_742792620_100ohm
SYMATTR InstName L2
SYMBOL res 48 80 R90
WINDOW 0 0 56 VBottom 2
WINDOW 3 32 56 VTop 2
SYMATTR InstName R1
SYMATTR Value 0.1
SYMBOL cap 48 160 R0
SYMATTR InstName C1
SYMATTR Value 2.2µ
SYMBOL cap 432 144 R0
SYMATTR InstName C2
SYMATTR Value 1µ
TEXT -98 264 Left 2 !.ac dec 100 1 200Meg
