Version 4
SHEET 1 880 680
WIRE -32 192 -144 192
WIRE 112 192 -32 192
WIRE 352 192 208 192
WIRE -144 208 -144 192
WIRE -32 208 -32 192
WIRE 352 208 352 192
WIRE -32 288 -32 272
WIRE 352 288 352 272
FLAG 352 288 0
FLAG -32 288 0
FLAG -144 288 0
FLAG -144 192 in
FLAG 352 192 out
SYMBOL EMC-Components\\Ferrites\\WE-CBF 160 192 R0
SYMATTR SpiceModel 0603_742792620_100ohm
SYMATTR InstName L1
SYMBOL cap -48 208 R0
SYMATTR InstName C1
SYMATTR Value 4.7µ
SYMBOL cap 336 208 R0
SYMATTR InstName C2
SYMATTR Value 4.7µ
SYMBOL voltage -144 192 R0
WINDOW 123 24 124 Left 2
WINDOW 39 24 152 Left 2
SYMATTR Value2 AC 1
SYMATTR SpiceLine Rser=50m
SYMATTR InstName V1
SYMATTR Value ""
TEXT 56 296 Left 2 !.ac dec 100 1 10Meg
